BEGIN OPTIONS
  TIME_UNITS SECONDS
END OPTIONS

BEGIN DIMENSIONS
  NPER 2
END DIMENSIONS

BEGIN PERIODDATA
 31        2    1.10           STRESS PERIOD 1
 31        2    1.10           STRESS PERIOD 2
END PERIODDATA
