
begin options
  BOUNDNAMES
end options

begin dimensions
  MAXBOUND 10
end dimensions

#        k         i         j      flux    name 
begin period 1
         1         6         4     -10.00   w01
         1         6         5     -10.00   w02
         1         7         4     -10.00   w03
         1         7         5     -10.00   w04
         1         8         4     -10.00   w05
         1         8         5     -10.00   w06
end period

begin period 2
         1         6         4     -10.00   w01
         1         6         5     -10.00   w02
         1         7         4     -10.00   w03
         1         7         5     -10.00   w04
         1         8         4     -10.00   w05
         1         8         5     -10.00   w06
end period
