BEGIN OPTIONS
  HEAD FILEOUT test1tr.hds
  BUDGET FILEOUT test1tr.cbc
END OPTIONS

BEGIN PERIOD 1
  PRINT BUDGET ALL
  SAVE HEAD ALL
  PRINT HEAD ALL
  SAVE BUDGET ALL
END PERIOD

BEGIN PERIOD 2
  PRINT BUDGET ALL
  SAVE HEAD ALL
  PRINT HEAD ALL
  SAVE BUDGET ALL
END PERIOD