BEGIN DIMENSIONS
  NCELLS 150
END DIMENSIONS

BEGIN GRIDDATA
  IZONE [LAYERED]
    INTERNAL FACTOR 1 IPRN 1
       1   1   0   0   0   0   0   0   0   0
       1   1   1   0   0   1   1   1   0   0
       0   1   1   1   1   1   1   1   0   0
       1   1   2   2   1   1   1   1   1   0
       1   1   2   2   1   1   1   1   1   1
       1   1   2   2   1   1   1   1   1   1
       1   1   2   2   1   1   1   1   1   0
       0   1   1   1   1   1   1   1   1   0
       0   1   1   1   1   1   1   1   1   0
       0   1   1   1   1   1   1   3   3   1
       0   1   1   1   1   1   1   3   3   0
       1   1   1   1   1   1   1   3   3   0
       1   1   1   1   1   1   1   1   1   0
       0   1   1   1   1   1   1   1   1   0
       0   0   1   1   1   1   0   0   0   0
END GRIDDATA