MODPATH_TIMESERIES_FILE         7         0
    2   0.0000000000E+00
END HEADER
       0       1  0.0000000000E+00         1    1         1     93563  0.2231000000E+00  0.8599000000E+00  0.5000000000E+00  0.8506689840E+06  0.2372301360E+06  0.2017697813E+04         1
       0       1  0.0000000000E+00         2    1         2     93059  0.1212000000E+00  0.1600000000E+00  0.5000000000E+00  0.8503999680E+06  0.2380224000E+06  0.2017170767E+04         1
       0       1  0.0000000000E+00         3    1         3     93058  0.8902000000E+00  0.2695000000E+00  0.5000000000E+00  0.8497901280E+06  0.2383114800E+06  0.2018473784E+04         1
       0       1  0.0000000000E+00         4    1         4     93058  0.6697000000E+00  0.1495000000E+00  0.5000000000E+00  0.8492080080E+06  0.2379946800E+06  0.2018473784E+04         1
       0       1  0.0000000000E+00         5    1         5     93562  0.5888000000E+00  0.8494000000E+00  0.5000000000E+00  0.8489944320E+06  0.2372024160E+06  0.2019026963E+04         1
       0       1  0.0000000000E+00         6    1         6     93562  0.6801000000E+00  0.5598000000E+00  0.5000000000E+00  0.8492354640E+06  0.2364378720E+06  0.2019026963E+04         1
       0       1  0.0000000000E+00         7    1         7     93562  0.9007000000E+00  0.4398000000E+00  0.5000000000E+00  0.8498178480E+06  0.2361210720E+06  0.2019026963E+04         1
       0       1  0.0000000000E+00         8    1         8     93563  0.1317000000E+00  0.5703000000E+00  0.5000000000E+00  0.8504276880E+06  0.2364655920E+06  0.2017697813E+04         1
       1       1  0.3652500000E+03         1    1         1     93563  0.7068668803E-01  0.7983991076E+00  0.4945861051E+00  0.8502666129E+06  0.2370677736E+06  0.2016432934E+04         1
       1       1  0.3652500000E+03         2    1         2     93058  0.9788721203E+00  0.1034425470E+00  0.4946060012E+00  0.8500242224E+06  0.2378730883E+06  0.2017205830E+04         1
       1       1  0.3652500000E+03         3    1         3     93058  0.7264351745E+00  0.2259043810E+00  0.4929191135E+00  0.8493577889E+06  0.2381963876E+06  0.2016809297E+04         1
       1       1  0.3652500000E+03         4    1         4     93058  0.4764690423E+00  0.9426427087E-01  0.4929191135E+00  0.8486978783E+06  0.2378488577E+06  0.2016809297E+04         1
       1       1  0.3652500000E+03         5    1         5     93562  0.4368593062E+00  0.7837353425E+00  0.4933538894E+00  0.8485933086E+06  0.2370290613E+06  0.2017455198E+04         1
       1       1  0.3652500000E+03         6    1         6     93562  0.5297234852E+00  0.4949124712E+00  0.4933538894E+00  0.8488384700E+06  0.2362665689E+06  0.2017455198E+04         1
       1       1  0.3652500000E+03         7    1         7     93562  0.7541028709E+00  0.3752344858E+00  0.4933538894E+00  0.8494308316E+06  0.2359506190E+06  0.2017455198E+04         1
       1       1  0.3652500000E+03         8    1         8     93562  0.9836885955E+00  0.5097534978E+00  0.4944461858E+00  0.8500369379E+06  0.2363057492E+06  0.2017713520E+04         1
       2       1  0.7305000000E+03         1    1         1     93562  0.9250351178E+00  0.7349405018E+00  0.4885972573E+00  0.8498820927E+06  0.2369002429E+06  0.2016330284E+04         1
       2       1  0.7305000000E+03         2    1         2     93058  0.8269568386E+00  0.4373920270E-01  0.4876015033E+00  0.8496231661E+06  0.2377154715E+06  0.2015559300E+04         1
       2       1  0.7305000000E+03         3    1         3     93058  0.5407859227E+00  0.1780799469E+00  0.4859385049E+00  0.8488676748E+06  0.2380701311E+06  0.2015168383E+04         1
       2       1  0.7305000000E+03         4    1         4     93058  0.2574160033E+00  0.3367062535E-01  0.4859385049E+00  0.8481195782E+06  0.2376888905E+06  0.2015168383E+04         1
       2       1  0.7305000000E+03         5    1         5     93562  0.2823155186E+00  0.7182468932E+00  0.4867961204E+00  0.8481853130E+06  0.2368561718E+06  0.2015904326E+04         1
       2       1  0.7305000000E+03         6    1         6     93562  0.3767706748E+00  0.4301990651E+00  0.4867961204E+00  0.8484346746E+06  0.2360957255E+06  0.2015904326E+04         1
       2       1  0.7305000000E+03         7    1         7     93562  0.6049941956E+00  0.3108422302E+00  0.4867961204E+00  0.8490371847E+06  0.2357806235E+06  0.2015904326E+04         1
       2       1  0.7305000000E+03         8    1         8     93562  0.8385132519E+00  0.4450002665E+00  0.4878738977E+00  0.8496536750E+06  0.2361348007E+06  0.2016159213E+04         1
       3       1  0.1095750000E+04         1    1         1     93562  0.7788549053E+00  0.6695829913E+00  0.4821027145E+00  0.8494961769E+06  0.2367276991E+06  0.2014794364E+04         1
       3       1  0.1095750000E+04         2    1         2     93562  0.6646047151E+00  0.9787057326E+00  0.4808326917E+00  0.8491945564E+06  0.2375437831E+06  0.2014494011E+04         1
       3       1  0.1095750000E+04         3    1         3     93058  0.3303277575E+00  0.1256164988E+00  0.4790567541E+00  0.8483120653E+06  0.2379316276E+06  0.2013550706E+04         1
       3       1  0.1095750000E+04         4    1         4     93562  0.5600033221E-01  0.9681396625E+00  0.4792603314E+00  0.8475878409E+06  0.2375158887E+06  0.2014122157E+04         1
       3       1  0.1095750000E+04         5    1         5     93562  0.1251240403E+00  0.6529341793E+00  0.4803255187E+00  0.8477703275E+06  0.2366837462E+06  0.2014374068E+04         1
       3       1  0.1095750000E+04         6    1         6     93562  0.2211974307E+00  0.3656593146E+00  0.4803255187E+00  0.8480239612E+06  0.2359253406E+06  0.2014374068E+04         1
       3       1  0.1095750000E+04         7    1         7     93562  0.4533309456E+00  0.2466227684E+00  0.4803255187E+00  0.8486367937E+06  0.2356110841E+06  0.2014374068E+04         1
       3       1  0.1095750000E+04         8    1         8     93562  0.6908507207E+00  0.3804207976E+00  0.4813889700E+00  0.8492638459E+06  0.2359643109E+06  0.2014625567E+04         1
       4       1  0.1461000000E+04         1    1         1     93562  0.6301702893E+00  0.6044008647E+00  0.4756944986E+00  0.8491036496E+06  0.2365556183E+06  0.2013278859E+04         1
       4       1  0.1461000000E+04         2    1         2     93562  0.5139627304E+00  0.9126940890E+00  0.4744413573E+00  0.8487968616E+06  0.2373695124E+06  0.2012982499E+04         1
       4       1  0.1461000000E+04         3    1         3     93058  0.9174538329E-01  0.6806404817E-01  0.4722724611E+00  0.8476822078E+06  0.2377796891E+06  0.2011955939E+04         1
       4       1  0.1461000000E+04         4    1         4     93561  0.8948724302E+00  0.9663630146E+00  0.4752051909E+00  0.8471624632E+06  0.2375111984E+06  0.2014536749E+04         1
       4       1  0.1461000000E+04         5    1         5     93561  0.9655427491E+00  0.6022938184E+00  0.4747101969E+00  0.8473490329E+06  0.2365500557E+06  0.2014418109E+04         1
       4       1  0.1461000000E+04         6    1         6     93562  0.6295885894E-01  0.3012927535E+00  0.4739409257E+00  0.8476062114E+06  0.2357554129E+06  0.2012864150E+04         1
       4       1  0.1461000000E+04         7    1         7     93562  0.2990693551E+00  0.1825756366E+00  0.4739409257E+00  0.8482295431E+06  0.2354419997E+06  0.2012864150E+04         1
       4       1  0.1461000000E+04         8    1         8     93562  0.5406583905E+00  0.3160146248E+00  0.4749902413E+00  0.8488673382E+06  0.2357942786E+06  0.2013112307E+04         1
       5       1  0.1826250000E+04         1    1         1     93562  0.4789383637E+00  0.5393936515E+00  0.4693714621E+00  0.8487043973E+06  0.2363839992E+06  0.2011783500E+04         1
       5       1  0.1826250000E+04         2    1         2     93562  0.3607399019E+00  0.8468595846E+00  0.4681349778E+00  0.8483923533E+06  0.2371957093E+06  0.2011491079E+04         1
       5       1  0.1826250000E+04         3    1         3     93057  0.8296326423E+00  0.6768447042E-01  0.4658541951E+00  0.8469902302E+06  0.2377786870E+06  0.2012716822E+04         1
       5       1  0.1826250000E+04         4    1         4     93057  0.7208930640E+00  0.1563905659E-02  0.4722713294E+00  0.8467031577E+06  0.2376041287E+06  0.2014258199E+04         1
       5       1  0.1826250000E+04         5    1         5     93561  0.8000771589E+00  0.6044628073E+00  0.4719309335E+00  0.8469122037E+06  0.2365557818E+06  0.2013751978E+04         1
       5       1  0.1826250000E+04         6    1         6     93561  0.9020460684E+00  0.2596657166E+00  0.4697770018E+00  0.8471814016E+06  0.2356455175E+06  0.2013235725E+04         1
       5       1  0.1826250000E+04         7    1         7     93562  0.1421649086E+00  0.1187003725E+00  0.4676411981E+00  0.8478153154E+06  0.2352733690E+06  0.2011374303E+04         1
       5       1  0.1826250000E+04         8    1         8     93562  0.3878929201E+00  0.2517812831E+00  0.4686765660E+00  0.8484640373E+06  0.2356247026E+06  0.2011619161E+04         1
       6       1  0.2191500000E+04         1    1         1     93562  0.3251154872E+00  0.4745608822E+00  0.4631324728E+00  0.8482983049E+06  0.2362128407E+06  0.2010308017E+04         1
       6       1  0.2191500000E+04         2    1         2     93562  0.2048920138E+00  0.7812017443E+00  0.4619124241E+00  0.8479809149E+06  0.2370223726E+06  0.2010019483E+04         1
       6       1  0.2191500000E+04         3    1         3     93057  0.5561948372E+00  0.9890284359E-01  0.4596687897E+00  0.8462683544E+06  0.2378611035E+06  0.2011231106E+04         1
       6       1  0.2191500000E+04         4    1         4     93057  0.4424624612E+00  0.3687057401E-01  0.4660007201E+00  0.8459681009E+06  0.2376973383E+06  0.2012752017E+04         1
       6       1  0.2191500000E+04         5    1         5     93561  0.6244360933E+00  0.6068286384E+00  0.4691679417E+00  0.8464485113E+06  0.2365620276E+06  0.2013089746E+04         1
       6       1  0.2191500000E+04         6    1         6     93561  0.7326756850E+00  0.2307401970E+00  0.4670266205E+00  0.8467342638E+06  0.2355691541E+06  0.2012576516E+04         1
       6       1  0.2191500000E+04         7    1         7     93561  0.9827640735E+00  0.5700673197E-01  0.4618008996E+00  0.8473944972E+06  0.2351104978E+06  0.2011324020E+04         1
       6       1  0.2191500000E+04         8    1         8     93562  0.2325102257E+00  0.1877203087E+00  0.4624468134E+00  0.8480538270E+06  0.2354555816E+06  0.2010145862E+04         1
       7       1  0.2556750000E+04         1    1         1     93562  0.1686572709E+00  0.4099020887E+00  0.4569764136E+00  0.8478852552E+06  0.2360421415E+06  0.2008852146E+04         1
       7       1  0.2556750000E+04         2    1         2     93562  0.4637409278E-01  0.7157200938E+00  0.4557725820E+00  0.8475624276E+06  0.2368495010E+06  0.2008567447E+04         1
       7       1  0.2556750000E+04         3    1         3     93057  0.2702020850E+00  0.1281909561E+00  0.4535655114E+00  0.8455133335E+06  0.2379384241E+06  0.2009765116E+04         1
       7       1  0.2556750000E+04         4    1         4     93057  0.1512476661E+00  0.6999419867E-01  0.4598133692E+00  0.8451992938E+06  0.2377847847E+06  0.2011265833E+04         1
       7       1  0.2556750000E+04         5    1         5     93561  0.4379938009E+00  0.6094091756E+00  0.4664211262E+00  0.8459563036E+06  0.2365688402E+06  0.2012431392E+04         1
       7       1  0.2556750000E+04         6    1         6     93561  0.5528896968E+00  0.1991896012E+00  0.4642923417E+00  0.8462596288E+06  0.2354858605E+06  0.2011921167E+04         1
       7       1  0.2556750000E+04         7    1         7     93561  0.8183575262E+00  0.9689312990E-02  0.4590972156E+00  0.8469604639E+06  0.2349855798E+06  0.2010676004E+04         1
       7       1  0.2556750000E+04         8    1         8     93562  0.7446546817E-01  0.1238312391E+00  0.4562998681E+00  0.8476365888E+06  0.2352869145E+06  0.2008692147E+04         1
       8       1  0.2922000000E+04         1    1         1     93562  0.9518565333E-02  0.3454168042E+00  0.4509021820E+00  0.8474651290E+06  0.2358719004E+06  0.2007415627E+04         1
       8       1  0.2922000000E+04         2    1         2     93561  0.8849265895E+00  0.7043448411E+00  0.4521206727E+00  0.8471362062E+06  0.2368194704E+06  0.2009003872E+04         1
       8       1  0.2922000000E+04         3    1         3     93056  0.9719949157E+00  0.1622192616E+00  0.4483295427E+00  0.8447260666E+06  0.2380282589E+06  0.2010993686E+04         1
       8       1  0.2922000000E+04         4    1         4     93056  0.8564406729E+00  0.1371562733E+00  0.4579117688E+00  0.8444210034E+06  0.2379620926E+06  0.2013351867E+04         1
       8       1  0.2922000000E+04         5    1         5     93561  0.2400860494E+00  0.6122239041E+00  0.4636903924E+00  0.8454338272E+06  0.2365762711E+06  0.2011776892E+04         1
       8       1  0.2922000000E+04         6    1         6     93561  0.3620475858E+00  0.1647756961E+00  0.4615740712E+00  0.8457558056E+06  0.2353950078E+06  0.2011269654E+04         1
       8       1  0.2922000000E+04         7    1         7     94065  0.6549715219E+00  0.9597977282E+00  0.4182707281E+00  0.8465291248E+06  0.2348538660E+06  0.2001209400E+04         1
       8       1  0.2922000000E+04         8    1         8     93561  0.9138791217E+00  0.7113879227E-01  0.4520459552E+00  0.8472126409E+06  0.2351478064E+06  0.2008985964E+04         1
       9       1  0.3287250000E+04         1    1         1     93561  0.8466104366E+00  0.3214364947E+00  0.4480628077E+00  0.8470350516E+06  0.2358085923E+06  0.2008031287E+04         1
       9       1  0.3287250000E+04         2    1         2     93561  0.7145034262E+00  0.7157752607E+00  0.4494736631E+00  0.8466862890E+06  0.2368496467E+06  0.2008369439E+04         1
       9       1  0.3287250000E+04         3    1         3     93056  0.6954856650E+00  0.2502077683E+00  0.4506484092E+00  0.8439960822E+06  0.2382605485E+06  0.2011564358E+04         1
       9       1  0.3287250000E+04         4    1         4     93056  0.5932917051E+00  0.2288041513E+00  0.4602801969E+00  0.8437262901E+06  0.2382040430E+06  0.2013934736E+04         1
       9       1  0.3287250000E+04         5    1         5     93561  0.3000775854E-01  0.6152940776E+00  0.4609756461E+00  0.8448792205E+06  0.2365843764E+06  0.2011126224E+04         1
       9       1  0.3287250000E+04         6    1         6     93561  0.1594694441E+00  0.1272386278E+00  0.4588717152E+00  0.8452209993E+06  0.2352959100E+06  0.2010621956E+04         1
       9       1  0.3287250000E+04         7    1         7     94065  0.4845743487E+00  0.9101280876E+00  0.3731304803E+00  0.8460792763E+06  0.2347227382E+06  0.1990340728E+04         1
       9       1  0.3287250000E+04         8    1         8     93561  0.7452364239E+00  0.2510389935E-01  0.4493993830E+00  0.8467674242E+06  0.2350262743E+06  0.2008351636E+04         1
      10       1  0.3652500000E+04         1    1         1     93561  0.6738309824E+00  0.2981168549E+00  0.4454395555E+00  0.8465789138E+06  0.2357470285E+06  0.2007402548E+04         1
      10       1  0.3652500000E+04         2    1         2     93561  0.5335999165E+00  0.7282430245E+00  0.4468421508E+00  0.8462087038E+06  0.2368825616E+06  0.2007738721E+04         1
      10       1  0.3652500000E+04         3    1         3     93056  0.4509461778E+00  0.3253493386E+00  0.4529792695E+00  0.8433504979E+06  0.2384589223E+06  0.2012137981E+04         1
      10       1  0.3652500000E+04         4    1         4     93056  0.3605677963E+00  0.3070707991E+00  0.4626608751E+00  0.8431118990E+06  0.2384106669E+06  0.2014520620E+04         1
      10       1  0.3652500000E+04         5    1         5     93560  0.8191832477E+00  0.6722910594E+00  0.4648580290E+00  0.8443226438E+06  0.2367348484E+06  0.2013884223E+04         1
      10       1  0.3652500000E+04         6    1         6     93560  0.9461650531E+00  0.9171443497E-01  0.4580965562E+00  0.8446578757E+06  0.2352021261E+06  0.2012234586E+04         1
      10       1  0.3652500000E+04         7    1         7     94065  0.3040123401E+00  0.8607215908E+00  0.3328618189E+00  0.8456025926E+06  0.2345923050E+06  0.1980645016E+04         1
      10       1  0.3652500000E+04         8    1         8     94065  0.5730107270E+00  0.9755646305E+00  0.4237087627E+00  0.8463127483E+06  0.2348954906E+06  0.2002518746E+04         1
      11       1  0.4017750000E+04         1    1         1     93561  0.4904262792E+00  0.2726808892E+00  0.4428316615E+00  0.8460947254E+06  0.2356798775E+06  0.2006777490E+04         1
      11       1  0.4017750000E+04         2    1         2     93561  0.3415715606E+00  0.7418422746E+00  0.4442260451E+00  0.8457017489E+06  0.2369184636E+06  0.2007111695E+04         1
      11       1  0.4017750000E+04         3    1         3     93056  0.2346801374E+00  0.3895197148E+00  0.4553221856E+00  0.8427795556E+06  0.2386283320E+06  0.2012714572E+04         1
      11       1  0.4017750000E+04         4    1         4     93056  0.1547512271E+00  0.3739099698E+00  0.4650538667E+00  0.8425685432E+06  0.2385871223E+06  0.2015109534E+04         1
      11       1  0.4017750000E+04         5    1         5     93560  0.6189688274E+00  0.7482825671E+00  0.4698452315E+00  0.8437940777E+06  0.2369354660E+06  0.2015100981E+04         1
      11       1  0.4017750000E+04         6    1         6     93560  0.7397342252E+00  0.6869273101E-01  0.4630112187E+00  0.8441128984E+06  0.2351413488E+06  0.2013433646E+04         1
      11       1  0.4017750000E+04         7    1         7     94065  0.1126791253E+00  0.8115768438E+00  0.2969389968E+00  0.8450974729E+06  0.2344625629E+06  0.1971995675E+04         1
      11       1  0.4017750000E+04         8    1         8     94065  0.3977242827E+00  0.9258114588E+00  0.3779816361E+00  0.8458499921E+06  0.2347641423E+06  0.1991508768E+04         1
      12       1  0.4383000000E+04         1    1         1     93561  0.2957429164E+00  0.2449365347E+00  0.4402390358E+00  0.8455807613E+06  0.2356066325E+06  0.2006156092E+04         1
      12       1  0.4383000000E+04         2    1         2     93561  0.1377342249E+00  0.7566756966E+00  0.4416252558E+00  0.8451636184E+06  0.2369576238E+06  0.2006488340E+04         1
      12       1  0.4383000000E+04         3    1         3     93056  0.4341859184E-01  0.4443207680E+00  0.4576772198E+00  0.8422746251E+06  0.2387730068E+06  0.2013294145E+04         1
      12       1  0.4383000000E+04         4    1         4     93055  0.9728191181E+00  0.4381852976E+00  0.4655425448E+00  0.8420882425E+06  0.2387568092E+06  0.2016661492E+04         1
      12       1  0.4383000000E+04         5    1         5     93560  0.4285559251E+00  0.8372338856E+00  0.4748859390E+00  0.8432913876E+06  0.2371702975E+06  0.2016330793E+04         1
      12       1  0.4383000000E+04         6    1         6     93560  0.5434092401E+00  0.4174483928E-01  0.4679786079E+00  0.8435946004E+06  0.2350702064E+06  0.2014645570E+04         1
      12       1  0.4383000000E+04         7    1         7     94064  0.9135452184E+00  0.7696415546E+00  0.2646225313E+00  0.8445717594E+06  0.2343518537E+06  0.1965108531E+04         1
      12       1  0.4383000000E+04         8    1         8     94065  0.2119813394E+00  0.8763218734E+00  0.3371894325E+00  0.8453596307E+06  0.2346334897E+06  0.1981687000E+04         1
      13       1  0.4748250000E+04         1    1         1     93561  0.8908730145E-01  0.2146742984E+00  0.4376615890E+00  0.8450351905E+06  0.2355267401E+06  0.2005538332E+04         1
      13       1  0.4748250000E+04         2    1         2     93560  0.9242457034E+00  0.7981246380E+00  0.4416371825E+00  0.8446000087E+06  0.2370670490E+06  0.2008218893E+04         1
      13       1  0.4748250000E+04         3    1         3     93055  0.8694377635E+00  0.5277024972E+00  0.4510951900E+00  0.8418153157E+06  0.2389931346E+06  0.2013055368E+04         1
      13       1  0.4748250000E+04         4    1         4     93055  0.7990889743E+00  0.5329958630E+00  0.4559284540E+00  0.8416295949E+06  0.2390071091E+06  0.2014261772E+04         1
      13       1  0.4748250000E+04         5    1         5     93560  0.2474647064E+00  0.9413552184E+00  0.4799807255E+00  0.8428133068E+06  0.2374451778E+06  0.2017573799E+04         1
      13       1  0.4748250000E+04         6    1         6     93560  0.3566953653E+00  0.1020117638E-01  0.4729992894E+00  0.8431016758E+06  0.2349869311E+06  0.2015870496E+04         1
      13       1  0.4748250000E+04         7    1         7     94064  0.7232089346E+00  0.7370095304E+00  0.2355130849E+00  0.8440692716E+06  0.2342657052E+06  0.1957982656E+04         1
      13       1  0.4748250000E+04         8    1         8     94065  0.1515812747E-01  0.8270944779E+00  0.3007995695E+00  0.8448400175E+06  0.2345035294E+06  0.1972925207E+04         1
      14       1  0.5113500000E+04         1    1         1     93560  0.8760785068E+00  0.1989260097E+00  0.4393425272E+00  0.8444728473E+06  0.2354851647E+06  0.2007659052E+04         1
      14       1  0.5113500000E+04         2    1         2     93560  0.7188879395E+00  0.8955761670E+00  0.4463752616E+00  0.8440578642E+06  0.2373243211E+06  0.2009374871E+04         1
      14       1  0.5113500000E+04         3    1         3     93055  0.6940949290E+00  0.6161346792E+00  0.4417794568E+00  0.8413524106E+06  0.2392265956E+06  0.2010730120E+04         1
      14       1  0.5113500000E+04         4    1         4     93055  0.6226487384E+00  0.6210508759E+00  0.4465129072E+00  0.8411637927E+06  0.2392395743E+06  0.2011911610E+04         1
      14       1  0.5113500000E+04         5    1         5     93056  0.6615501233E-01  0.5794425496E-01  0.4837971600E+00  0.8423346492E+06  0.2377529728E+06  0.2019722250E+04         1
      14       1  0.5113500000E+04         6    1         6     94064  0.1908067263E+00  0.9749298116E+00  0.4369200342E+00  0.8426637298E+06  0.2348938147E+06  0.2007286266E+04         1
      14       1  0.5113500000E+04         7    1         7     94064  0.5428065428E+00  0.7047650050E+00  0.2096057841E+00  0.8435930093E+06  0.2341805796E+06  0.1951640653E+04         1
      14       1  0.5113500000E+04         8    1         8     94064  0.8193415495E+00  0.7926291277E+00  0.2677572370E+00  0.8443230617E+06  0.2344125409E+06  0.1965875894E+04         1
      15       1  0.5478750000E+04         1    1         1     93560  0.6730787731E+00  0.1941884768E+00  0.4440559882E+00  0.8439369280E+06  0.2354726576E+06  0.2008809024E+04         1
      15       1  0.5478750000E+04         2    1         2     93056  0.5197557737E+00  0.9446134475E-02  0.4509683977E+00  0.8435321552E+06  0.2376249378E+06  0.2011643107E+04         1
      15       1  0.5478750000E+04         3    1         3     93055  0.5160168455E+00  0.6982657887E+00  0.4326561063E+00  0.8408822845E+06  0.2394434217E+06  0.2008452891E+04         1
      15       1  0.5478750000E+04         4    1         4     93055  0.4434561348E+00  0.7028316909E+00  0.4372918045E+00  0.8406907242E+06  0.2394554757E+06  0.2009609982E+04         1
      15       1  0.5478750000E+04         5    1         5     93055  0.8912547859E+00  0.1740530432E+00  0.4783997327E+00  0.8418729126E+06  0.2380595000E+06  0.2019870704E+04         1
      15       1  0.5478750000E+04         6    1         6     94064  0.3819108050E-01  0.9398600302E+00  0.3888572323E+00  0.8422608245E+06  0.2348012305E+06  0.1995520686E+04         1
      15       1  0.5478750000E+04         7    1         7     94064  0.3718195804E+00  0.6729033769E+00  0.1865483812E+00  0.8431416037E+06  0.2340964649E+06  0.1945996293E+04         1
      15       1  0.5478750000E+04         8    1         8     94064  0.6339218746E+00  0.7597241306E+00  0.2383029616E+00  0.8438335537E+06  0.2343256717E+06  0.1958665606E+04         1
      16       1  0.5844000000E+04         1    1         1     93560  0.4800169127E+00  0.1886429915E+00  0.4488200173E+00  0.8434272446E+06  0.2354580175E+06  0.2009971333E+04         1
      16       1  0.5844000000E+04         2    1         2     93056  0.2955340265E+00  0.1197405846E+00  0.4533009130E+00  0.8429402098E+06  0.2379161151E+06  0.2012217138E+04         1
      16       1  0.5844000000E+04         3    1         3     93055  0.3351608446E+00  0.7745447971E+00  0.4237211654E+00  0.8404048246E+06  0.2396447983E+06  0.2006222690E+04         1
      16       1  0.5844000000E+04         4    1         4     93055  0.2614682278E+00  0.7787853644E+00  0.4282611301E+00  0.8402102761E+06  0.2396559934E+06  0.2007355885E+04         1
      16       1  0.5844000000E+04         5    1         5     93055  0.7162522846E+00  0.2876838665E+00  0.4685201233E+00  0.8414109060E+06  0.2383594854E+06  0.2017404709E+04         1
      16       1  0.5844000000E+04         6    1         6     94063  0.8934410233E+00  0.9163232118E+00  0.3524299125E+00  0.8418786843E+06  0.2347390933E+06  0.1987472845E+04         1
      16       1  0.5844000000E+04         7    1         7     94064  0.2097566443E+00  0.6414200993E+00  0.1660273769E+00  0.8427137575E+06  0.2340133491E+06  0.1940972834E+04         1
      16       1  0.5844000000E+04         8    1         8     94064  0.4581794876E+00  0.7272098739E+00  0.2120887641E+00  0.8433695938E+06  0.2342398341E+06  0.1952248476E+04         1
      17       1  0.6209250000E+04         1    1         1     93560  0.2964064160E+00  0.1821517630E+00  0.4536351570E+00  0.8429425129E+06  0.2354408807E+06  0.2011146111E+04         1
      17       1  0.6209250000E+04         2    1         2     93056  0.9723660629E-01  0.2139312747E+00  0.4556454927E+00  0.8424167046E+06  0.2381647786E+06  0.2012794138E+04         1
      17       1  0.6209250000E+04         3    1         3     93055  0.1514835924E+00  0.8453886851E+00  0.4149707433E+00  0.8399199167E+06  0.2398318261E+06  0.2004038545E+04         1
      17       1  0.6209250000E+04         4    1         4     93055  0.7664141249E-01  0.8493270985E+00  0.4194169515E+00  0.8397223333E+06  0.2398422235E+06  0.2005148339E+04         1
      17       1  0.6209250000E+04         5    1         5     93055  0.5385198433E+00  0.3932181346E+00  0.4588445414E+00  0.8409416924E+06  0.2386380959E+06  0.2014989641E+04         1
      17       1  0.6209250000E+04         6    1         6     94063  0.7519730618E+00  0.8964057738E+00  0.3214494009E+00  0.8415052089E+06  0.2346865112E+06  0.1979797570E+04         1
      17       1  0.6209250000E+04         7    1         7     94064  0.5615197822E-01  0.6103106793E+00  0.1477637581E+00  0.8423082412E+06  0.2339312202E+06  0.1936501973E+04         1
      17       1  0.6209250000E+04         8    1         8     94064  0.2916093185E+00  0.6950817174E+00  0.1887582243E+00  0.8429298486E+06  0.2341550157E+06  0.1946537254E+04         1
      18       1  0.6574500000E+04         1    1         1     93560  0.1217845904E+00  0.1745535018E+00  0.4585019556E+00  0.8424815113E+06  0.2354208212E+06  0.2012333494E+04         1
      18       1  0.6574500000E+04         2    1         2     93055  0.9204788278E+00  0.3094406460E+00  0.4525425275E+00  0.8419500641E+06  0.2384169233E+06  0.2013416630E+04         1
      18       1  0.6574500000E+04         3    1         3     93054  0.9656546446E+00  0.9100083768E+00  0.4074381062E+00  0.8394293283E+06  0.2400024221E+06  0.2003468502E+04         1
      18       1  0.6574500000E+04         4    1         4     93054  0.8924817280E+00  0.9114717613E+00  0.4140749079E+00  0.8392361518E+06  0.2400062854E+06  0.2005150164E+04         1
      18       1  0.6574500000E+04         5    1         5     93055  0.3580148765E+00  0.4912327525E+00  0.4493687735E+00  0.8404651593E+06  0.2388968545E+06  0.2012624447E+04         1
      18       1  0.6574500000E+04         6    1         6     94063  0.6131127640E+00  0.8761180994E+00  0.2931922452E+00  0.8411386177E+06  0.2346329518E+06  0.1972796993E+04         1
      18       1  0.6574500000E+04         7    1         7     94063  0.9106674805E+00  0.5826348927E+00  0.1335263256E+00  0.8419241621E+06  0.2338581561E+06  0.1933240516E+04         1
      18       1  0.6574500000E+04         8    1         8     94064  0.1337326576E+00  0.6633350764E+00  0.1679941292E+00  0.8425130542E+06  0.2340712046E+06  0.1941454287E+04         1
      19       1  0.6939750000E+04         1    1         1     93559  0.9560837613E+00  0.1701670935E+00  0.4606912552E+00  0.8420440611E+06  0.2354092411E+06  0.2014204029E+04         1
      19       1  0.6939750000E+04         2    1         2     93055  0.7459322050E+00  0.4134246748E+00  0.4431969048E+00  0.8414892610E+06  0.2386914411E+06  0.2011083921E+04         1
      19       1  0.6939750000E+04         3    1         3     93054  0.7864604418E+00  0.9635230590E+00  0.4045064273E+00  0.8389562556E+06  0.2401437009E+06  0.2002725660E+04         1
      19       1  0.6939750000E+04         4    1         4     93054  0.7164229857E+00  0.9648169356E+00  0.4110954746E+00  0.8387713567E+06  0.2401471167E+06  0.2004395222E+04         1
      19       1  0.6939750000E+04         5    1         5     93055  0.1746941342E+00  0.5822635190E+00  0.4400886932E+00  0.8399811925E+06  0.2391371757E+06  0.2010308098E+04         1
      19       1  0.6939750000E+04         6    1         6     94063  0.4768120633E+00  0.8554533066E+00  0.2674190476E+00  0.8407787838E+06  0.2345783967E+06  0.1966411805E+04         1
      19       1  0.6939750000E+04         7    1         7     94063  0.7688819855E+00  0.5565146722E+00  0.1217886333E+00  0.8415498484E+06  0.2337891987E+06  0.1930332558E+04         1