BEGIN OPTIONS
  PRINT_FLOWS
  UNIT_CONVERSION 1.486
END OPTIONS

#dimension block is required
BEGIN DIMENSIONS
  NREACHES 2
END DIMENSIONS

BEGIN PACKAGEDATA
#rch  node length width         slope     sbot   bthick      hk rough nconn ustrf ndiv
   1    4   4500.  12     8.6767896E-04     -10    3.0 0.00003  0.03     1   1.0    0
   2    5   7000.  12     8.6767896E-04     -10    3.0 0.00003  0.03     1   1.0    0
END PACKAGEDATA

BEGIN CONNECTIONDATA
  1  -2
  2   1
END CONNECTIONDATA  


begin period 1  
   1 inflow 25. 
end period   
