# SFR Package for MODFLOW-USGs
 -1234  98  0  0  1.283904e+005  1.000000e-004  50  93 1 10 1 30
  20331  1  1  3.301000000000000e+002  2.648253686564559e+003  1.000000000000000e-003  1.000000000000000e+001  1.000000000000000e+001
  43385  98  88  4.158000000000000e+002  2.402594603911414e+003  1.000000000000000e-003  1.000000000000000e+001  1.000000000000000e+001
  98  0  0  0
  1  1  49  0  0.000000  0.000000  0.000000  0.000000  0.030000
  10.000000
  10.000000
  98  1  0  0  0.000000  0.000000  0.000000  0.000000  0.030000
  10.000000
  10.000000
