BEGIN OPTIONS
END OPTIONS

BEGIN PACKAGES
  DIS6          flow.dis
  IC6           flow.ic
  CHD6          flow.chd
  NPF6          flow.npf
  GNC6          flow.gnc
  OC6           flow.oc
  WEL6          flow.wel
  SFR6          flow.sfr
END PACKAGES

